# opt b3lyp/6-31g(d,p)

Title

0 1
 O                 -0.40400000   -2.13600000   -2.42300000
 O                  2.21800000    0.48900000   -0.24200000
 O                 -8.17900000    0.30800000   -1.35100000
 O                  3.54900000    1.73400000    0.75100000
 O                  2.63200000    2.03800000   -2.81700000
 O                  3.77800000    4.62700000   -2.30700000
 O                  5.17900000    4.99000000    0.16700000
 O                  5.22800000    2.03800000    3.13000000
 C                 -2.31800000   -0.03200000    0.81100000
 C                 -1.11700000   -0.99100000    1.08500000
 C                 -3.19600000   -0.74600000   -0.26600000
 C                 -4.56600000   -0.06600000   -0.57200000
 C                 -0.28900000   -1.10100000   -0.23300000
 C                 -5.29400000    0.07800000    0.78900000
 C                 -3.16200000    0.18600000    2.07900000
 C                  1.10700000   -1.58900000    0.19700000
 C                 -2.40400000   -1.04500000   -1.54000000
 C                 -1.14000000   -1.88700000   -1.24500000
 C                 -0.06100000   -0.49700000    2.08400000
 C                 -4.45000000    0.92000000    1.74300000
 C                 -6.77600000    0.52800000    0.71800000
 C                  1.17800000   -1.30900000    1.71900000
 C                 -5.40300000   -0.98900000   -1.49400000
 C                 -1.77800000    1.33700000    0.38600000
 C                 -1.62000000   -2.34600000    1.60200000
 C                 -4.36000000    1.26900000   -1.28200000
 C                  2.32200000   -0.92600000   -0.53000000
 C                 -7.55300000   -0.38300000   -0.29800000
 C                 -6.65700000   -1.51500000   -0.82300000
 C                 -7.39000000    0.30000000    2.10800000
 C                 -6.93600000    2.01100000    0.39300000
 C                  3.63200000   -1.51400000    0.05900000
 C                  2.29400000   -1.14400000   -2.04500000
 C                  3.77800000   -3.00600000   -0.19200000
 C                  3.31700000    1.29000000   -0.57200000
 C                  2.89900000    2.46800000   -1.51100000
 C                  4.85700000   -3.59200000    0.64400000
 C                  4.02300000    3.54200000   -1.45400000
 C                  4.56900000    2.72000000    0.87100000
 C                  4.21900000    3.97700000    0.02700000
 C                  5.83000000   -4.38800000    0.18100000
 C                  4.64500000    3.06300000    2.37500000
 C                  5.96600000   -4.78100000   -1.24500000
 C                  6.86300000   -4.95000000    1.09400000
 H                 -3.45900000   -1.74800000    0.18000000
 H                 -0.15900000   -0.06900000   -0.66200000
 H                 -5.33900000   -0.96300000    1.22000000
 H                 -3.37400000   -0.79300000    2.56500000
 H                 -2.57500000    0.76200000    2.82200000
 H                  1.20900000   -2.69000000    0.00800000
 H                 -2.15200000   -0.09100000   -2.05700000
 H                 -3.06600000   -1.59800000   -2.24600000
 H                 -1.44000000   -2.87700000   -0.80500000
 H                 -0.36900000   -0.64300000    3.13500000
 H                  0.11200000    0.59400000    1.96000000
 H                 -5.03000000    1.14700000    2.66300000
 H                 -4.19900000    1.89700000    1.26200000
 H                  2.11800000   -0.79300000    2.00500000
 H                  1.19200000   -2.26700000    2.27700000
 H                 -5.68000000   -0.45100000   -2.42600000
 H                 -4.78500000   -1.84500000   -1.84900000
 H                 -1.32700000    1.30400000   -0.61800000
 H                 -2.57500000    2.10100000    0.38700000
 H                 -0.99300000    1.67500000    1.08400000
 H                 -2.26800000   -2.20300000    2.48200000
 H                 -0.79300000   -3.00800000    1.89100000
 H                 -2.21500000   -2.87700000    0.83800000
 H                 -5.29200000    1.65200000   -1.72700000
 H                 -3.60300000    1.17200000   -2.07600000
 H                 -4.01000000    2.04200000   -0.57200000
 H                 -8.44800000   -0.82700000    0.20100000
 H                 -7.22400000   -2.15100000   -1.53100000
 H                 -6.38000000   -2.17000000    0.03000000
 H                 -6.78900000    0.80800000    2.88200000
 H                 -7.42400000   -0.76600000    2.37100000
 H                 -8.41400000    0.69000000    2.16700000
 H                 -6.48900000    2.27500000   -0.57900000
 H                 -6.44900000    2.63700000    1.15400000
 H                 -7.99500000    2.30000000    0.36000000
 H                 -1.01500000   -2.50500000   -3.04700000
 H                  3.64700000   -1.30100000    1.15300000
 H                  4.50400000   -0.96800000   -0.36700000
 H                  2.11500000   -2.20000000   -2.28800000
 H                  1.50300000   -0.55000000   -2.52400000
 H                  3.24600000   -0.85700000   -2.51300000
 H                 -7.49800000    0.72600000   -1.86600000
 H                  2.81400000   -3.51700000    0.04200000
 H                  3.96500000   -3.20200000   -1.27300000
 H                  4.20300000    0.72600000   -0.97500000
 H                  1.91500000    2.89500000   -1.20700000
 H                  4.81800000   -3.34200000    1.71300000
 H                  4.97500000    3.14000000   -1.87700000
 H                  5.53900000    2.28500000    0.52200000
 H                  3.30200000    4.47400000    0.42200000
 H                  3.43200000    1.66600000   -3.17100000
 H                  5.32400000    3.91800000    2.54200000
 H                  3.64700000    3.33300000    2.77300000
 H                  2.96500000    5.03300000   -2.03000000
 H                  6.97200000   -4.55100000   -1.62000000
 H                  5.23900000   -4.26000000   -1.88900000
 H                  5.80500000   -5.86100000   -1.36600000
 H                  6.71300000   -4.65000000    2.13900000
 H                  7.86600000   -4.61800000    0.79300000
 H                  6.85300000   -6.04800000    1.05900000
 H                  5.98100000    4.68800000   -0.24300000
 H                  4.65500000    1.28300000    3.07400000

