#n B3LYP/6-31G(d,p) Opt

 Title

0 1
O         -0.40400       -2.13600       -2.42300
O          2.21800        0.48900       -0.24200
O         -8.17900        0.30800       -1.35100
O          3.54900        1.73400        0.75100
O          2.63200        2.03800       -2.81700
O          3.77800        4.62700       -2.30700
O          5.17900        4.99000        0.16700
O          5.22800        2.03800        3.13000
C         -2.31800       -0.03200        0.81100
C         -1.11700       -0.99100        1.08500
C         -3.19600       -0.74600       -0.26600
C         -4.56600       -0.06600       -0.57200
C         -0.28900       -1.10100       -0.23300
C         -5.29400        0.07800        0.78900
C         -3.16200        0.18600        2.07900
C          1.10700       -1.58900        0.19700
C         -2.40400       -1.04500       -1.54000
C         -1.14000       -1.88700       -1.24500
C         -0.06100       -0.49700        2.08400
C         -4.45000        0.92000        1.74300
C         -6.77600        0.52800        0.71800
C          1.17800       -1.30900        1.71900
C         -5.40300       -0.98900       -1.49400
C         -1.77800        1.33700        0.38600
C         -1.62000       -2.34600        1.60200
C         -4.36000        1.26900       -1.28200
C          2.32200       -0.92600       -0.53000
C         -7.55300       -0.38300       -0.29800
C         -6.65700       -1.51500       -0.82300
C         -7.39000        0.30000        2.10800
C         -6.93600        2.01100        0.39300
C          3.63200       -1.51400        0.05900
C          2.29400       -1.14400       -2.04500
C          3.77800       -3.00600       -0.19200
C          3.31700        1.29000       -0.57200
C          2.89900        2.46800       -1.51100
C          4.85700       -3.59200        0.64400
C          4.02300        3.54200       -1.45400
C          4.56900        2.72000        0.87100
C          4.21900        3.97700        0.02700
C          5.83000       -4.38800        0.18100
C          4.64500        3.06300        2.37500
C          5.96600       -4.78100       -1.24500
C          6.86300       -4.95000        1.09400
H         -3.45900       -1.74800        0.18000
H         -0.15900       -0.06900       -0.66200
H         -5.33900       -0.96300        1.22000
H         -3.37400       -0.79300        2.56500
H         -2.57500        0.76200        2.82200
H          1.20900       -2.69000        0.00800
H         -2.15200       -0.09100       -2.05700
H         -3.06600       -1.59800       -2.24600
H         -1.44000       -2.87700       -0.80500
H         -0.36900       -0.64300        3.13500
H          0.11200        0.59400        1.96000
H         -5.03000        1.14700        2.66300
H         -4.19900        1.89700        1.26200
H          2.11800       -0.79300        2.00500
H          1.19200       -2.26700        2.27700
H         -5.68000       -0.45100       -2.42600
H         -4.78500       -1.84500       -1.84900
H         -1.32700        1.30400       -0.61800
H         -2.57500        2.10100        0.38700
H         -0.99300        1.67500        1.08400
H         -2.26800       -2.20300        2.48200
H         -0.79300       -3.00800        1.89100
H         -2.21500       -2.87700        0.83800
H         -5.29200        1.65200       -1.72700
H         -3.60300        1.17200       -2.07600
H         -4.01000        2.04200       -0.57200
H         -8.44800       -0.82700        0.20100
H         -7.22400       -2.15100       -1.53100
H         -6.38000       -2.17000        0.03000
H         -6.78900        0.80800        2.88200
H         -7.42400       -0.76600        2.37100
H         -8.41400        0.69000        2.16700
H         -6.48900        2.27500       -0.57900
H         -6.44900        2.63700        1.15400
H         -7.99500        2.30000        0.36000
H         -1.01500       -2.50500       -3.04700
H          3.64700       -1.30100        1.15300
H          4.50400       -0.96800       -0.36700
H          2.11500       -2.20000       -2.28800
H          1.50300       -0.55000       -2.52400
H          3.24600       -0.85700       -2.51300
H         -7.49800        0.72600       -1.86600
H          2.81400       -3.51700        0.04200
H          3.96500       -3.20200       -1.27300
H          4.20300        0.72600       -0.97500
H          1.91500        2.89500       -1.20700
H          4.81800       -3.34200        1.71300
H          4.97500        3.14000       -1.87700
H          5.53900        2.28500        0.52200
H          3.30200        4.47400        0.42200
H          3.43200        1.66600       -3.17100
H          5.32400        3.91800        2.54200
H          3.64700        3.33300        2.77300
H          2.96500        5.03300       -2.03000
H          6.97200       -4.55100       -1.62000
H          5.23900       -4.26000       -1.88900
H          5.80500       -5.86100       -1.36600
H          6.71300       -4.65000        2.13900
H          7.86600       -4.61800        0.79300
H          6.85300       -6.04800        1.05900
H          5.98100        4.68800       -0.24300
H          4.65500        1.28300        3.07400

